# generated using pymatgen
data_Si
_symmetry_space_group_name_H-M   'P 1'
_cell_length_a   9.47211475
_cell_length_b   10.23105326
_cell_length_c   10.23105326
_cell_angle_alpha   120.00000000
_cell_angle_beta   90.00000000
_cell_angle_gamma   90.00000000
_symmetry_Int_Tables_number   1
_chemical_formula_structural   Si
_chemical_formula_sum   Si42
_cell_volume   858.65414982
_cell_formula_units_Z   42
loop_
 _symmetry_equiv_pos_site_id
 _symmetry_equiv_pos_as_xyz
  1  'x, y, z'
loop_
 _atom_site_type_symbol
 _atom_site_label
 _atom_site_symmetry_multiplicity
 _atom_site_fract_x
 _atom_site_fract_y
 _atom_site_fract_z
 _atom_site_occupancy
  Si  Si0  1  0.25000000  0.28571429  0.85714286  1
  Si  Si1  1  0.25000000  0.57142857  0.71428571  1
  Si  Si2  1  0.58333333  0.52380952  0.90476190  1
  Si  Si3  1  0.25000000  0.85714286  0.57142857  1
  Si  Si4  1  0.58333333  0.80952381  0.76190476  1
  Si  Si5  1  0.91666667  0.76190476  0.95238095  1
  Si  Si6  1  0.25000000  0.14285714  0.42857143  1
  Si  Si7  1  0.58333333  0.09523810  0.61904762  1
  Si  Si8  1  0.91666667  0.04761905  0.80952381  1
  Si  Si9  1  0.25000000  0.42857143  0.28571429  1
  Si  Si10  1  0.58333333  0.38095238  0.47619048  1
  Si  Si11  1  0.91666667  0.33333333  0.66666667  1
  Si  Si12  1  0.25000000  0.71428571  0.14285714  1
  Si  Si13  1  0.58333333  0.66666667  0.33333333  1
  Si  Si14  1  0.91666667  0.61904762  0.52380952  1
  Si  Si15  1  0.58333333  0.95238095  0.19047619  1
  Si  Si16  1  0.91666667  0.90476190  0.38095238  1
  Si  Si17  1  0.25000000  -0.00000000  0.00000000  1
  Si  Si18  1  0.58333333  0.23809524  0.04761905  1
  Si  Si19  1  0.91666667  0.19047619  0.23809524  1
  Si  Si20  1  0.91666667  0.47619048  0.09523810  1
  Si  Si21  1  0.16666667  0.76190476  0.95238095  1
  Si  Si22  1  0.16666667  0.04761905  0.80952381  1
  Si  Si23  1  0.16666667  0.33333333  0.66666667  1
  Si  Si24  1  0.50000000  0.28571429  0.85714286  1
  Si  Si25  1  0.16666667  0.61904762  0.52380952  1
  Si  Si26  1  0.50000000  0.57142857  0.71428571  1
  Si  Si27  1  0.83333333  0.52380952  0.90476190  1
  Si  Si28  1  0.16666667  0.90476190  0.38095238  1
  Si  Si29  1  0.50000000  0.85714286  0.57142857  1
  Si  Si30  1  0.83333333  0.80952381  0.76190476  1
  Si  Si31  1  0.16666667  0.19047619  0.23809524  1
  Si  Si32  1  0.50000000  0.14285714  0.42857143  1
  Si  Si33  1  0.83333333  0.09523810  0.61904762  1
  Si  Si34  1  0.16666667  0.47619048  0.09523810  1
  Si  Si35  1  0.50000000  0.42857143  0.28571429  1
  Si  Si36  1  0.83333333  0.38095238  0.47619048  1
  Si  Si37  1  0.50000000  0.71428571  0.14285714  1
  Si  Si38  1  0.83333333  0.66666667  0.33333333  1
  Si  Si39  1  0.83333333  0.95238095  0.19047619  1
  Si  Si40  1  0.50000000  -0.00000000  0.00000000  1
  Si  Si41  1  0.83333333  0.23809524  0.04761905  1
