# generated using pymatgen
data_SiC
_symmetry_space_group_name_H-M   'P 1'
_cell_length_a   25.30910000
_cell_length_b   10.23105326
_cell_length_c   10.23105326
_cell_angle_alpha   120.00000000
_cell_angle_beta   90.00000000
_cell_angle_gamma   90.00000000
_symmetry_Int_Tables_number   1
_chemical_formula_structural   SiC
_chemical_formula_sum   'Si120 C120'
_cell_volume   2294.28847936
_cell_formula_units_Z   120
loop_
 _symmetry_equiv_pos_site_id
 _symmetry_equiv_pos_as_xyz
  1  'x, y, z'
loop_
 _atom_site_type_symbol
 _atom_site_label
 _atom_site_symmetry_multiplicity
 _atom_site_fract_x
 _atom_site_fract_y
 _atom_site_fract_z
 _atom_site_occupancy
  C  C0  1  0.77518100  0.83333333  -0.00000000  1
  C  C1  1  0.77518100  0.66666667  0.16666667  1
  C  C2  1  0.77518100  0.83333333  0.50000000  1
  C  C3  1  0.77518100  0.33333333  -0.00000000  1
  C  C4  1  0.77518100  0.50000000  0.33333333  1
  C  C5  1  0.77518100  0.66666667  0.66666667  1
  C  C6  1  0.77518100  0.16666667  0.16666667  1
  C  C7  1  0.77518100  0.33333333  0.50000000  1
  C  C8  1  0.77518100  0.50000000  0.83333333  1
  C  C9  1  0.77518100  -0.00000000  0.33333333  1
  C  C10  1  0.77518100  0.16666667  0.66666667  1
  C  C11  1  0.77518100  -0.00000000  0.83333333  1
  C  C12  1  0.07517800  0.83333333  -0.00000000  1
  C  C13  1  0.07517800  0.66666667  0.16666667  1
  C  C14  1  0.07517800  0.83333333  0.50000000  1
  C  C15  1  0.07517800  0.33333333  -0.00000000  1
  C  C16  1  0.07517800  0.50000000  0.33333333  1
  C  C17  1  0.07517800  0.66666667  0.66666667  1
  C  C18  1  0.07517800  0.16666667  0.16666667  1
  C  C19  1  0.07517800  0.33333333  0.50000000  1
  C  C20  1  0.07517800  0.50000000  0.83333333  1
  C  C21  1  0.07517800  -0.00000000  0.33333333  1
  C  C22  1  0.07517800  0.16666667  0.66666667  1
  C  C23  1  0.07517800  -0.00000000  0.83333333  1
  C  C24  1  0.67489000  0.83333333  0.16666667  1
  C  C25  1  0.67489000  0.50000000  -0.00000000  1
  C  C26  1  0.67489000  0.66666667  0.33333333  1
  C  C27  1  0.67489000  0.83333333  0.66666667  1
  C  C28  1  0.67489000  0.33333333  0.16666667  1
  C  C29  1  0.67489000  0.50000000  0.50000000  1
  C  C30  1  0.67489000  0.66666667  0.83333333  1
  C  C31  1  0.67489000  -0.00000000  -0.00000000  1
  C  C32  1  0.67489000  0.16666667  0.33333333  1
  C  C33  1  0.67489000  0.33333333  0.66666667  1
  C  C34  1  0.67489000  -0.00000000  0.50000000  1
  C  C35  1  0.67489000  0.16666667  0.83333333  1
  C  C36  1  0.27492800  0.83333333  0.16666667  1
  C  C37  1  0.27492800  0.50000000  -0.00000000  1
  C  C38  1  0.27492800  0.66666667  0.33333333  1
  C  C39  1  0.27492800  0.83333333  0.66666667  1
  C  C40  1  0.27492800  0.33333333  0.16666667  1
  C  C41  1  0.27492800  0.50000000  0.50000000  1
  C  C42  1  0.27492800  0.66666667  0.83333333  1
  C  C43  1  0.27492800  -0.00000000  -0.00000000  1
  C  C44  1  0.27492800  0.16666667  0.33333333  1
  C  C45  1  0.27492800  0.33333333  0.66666667  1
  C  C46  1  0.27492800  -0.00000000  0.50000000  1
  C  C47  1  0.27492800  0.16666667  0.83333333  1
  C  C48  1  0.17498900  0.66666667  0.00000000  1
  C  C49  1  0.17498900  0.83333333  0.33333333  1
  C  C50  1  0.17498900  0.50000000  0.16666667  1
  C  C51  1  0.17498900  0.66666667  0.50000000  1
  C  C52  1  0.17498900  0.83333333  0.83333333  1
  C  C53  1  0.17498900  0.16666667  -0.00000000  1
  C  C54  1  0.17498900  0.33333333  0.33333333  1
  C  C55  1  0.17498900  0.50000000  0.66666667  1
  C  C56  1  0.17498900  -0.00000000  0.16666667  1
  C  C57  1  0.17498900  0.16666667  0.50000000  1
  C  C58  1  0.17498900  0.33333333  0.83333333  1
  C  C59  1  0.17498900  -0.00000000  0.66666667  1
  C  C60  1  0.57517800  0.66666667  -0.00000000  1
  C  C61  1  0.57517800  0.83333333  0.33333333  1
  C  C62  1  0.57517800  0.50000000  0.16666667  1
  C  C63  1  0.57517800  0.66666667  0.50000000  1
  C  C64  1  0.57517800  0.83333333  0.83333333  1
  C  C65  1  0.57517800  0.16666667  -0.00000000  1
  C  C66  1  0.57517800  0.33333333  0.33333333  1
  C  C67  1  0.57517800  0.50000000  0.66666667  1
  C  C68  1  0.57517800  -0.00000000  0.16666667  1
  C  C69  1  0.57517800  0.16666667  0.50000000  1
  C  C70  1  0.57517800  0.33333333  0.83333333  1
  C  C71  1  0.57517800  -0.00000000  0.66666667  1
  C  C72  1  0.47488900  0.83333333  0.16666667  1
  C  C73  1  0.47488900  0.50000000  -0.00000000  1
  C  C74  1  0.47488900  0.66666667  0.33333333  1
  C  C75  1  0.47488900  0.83333333  0.66666667  1
  C  C76  1  0.47488900  0.33333333  0.16666667  1
  C  C77  1  0.47488900  0.50000000  0.50000000  1
  C  C78  1  0.47488900  0.66666667  0.83333333  1
  C  C79  1  0.47488900  -0.00000000  -0.00000000  1
  C  C80  1  0.47488900  0.16666667  0.33333333  1
  C  C81  1  0.47488900  0.33333333  0.66666667  1
  C  C82  1  0.47488900  -0.00000000  0.50000000  1
  C  C83  1  0.47488900  0.16666667  0.83333333  1
  C  C84  1  0.97491200  0.66666667  -0.00000000  1
  C  C85  1  0.97491200  0.83333333  0.33333333  1
  C  C86  1  0.97491200  0.50000000  0.16666667  1
  C  C87  1  0.97491200  0.66666667  0.50000000  1
  C  C88  1  0.97491200  0.83333333  0.83333333  1
  C  C89  1  0.97491200  0.16666667  -0.00000000  1
  C  C90  1  0.97491200  0.33333333  0.33333333  1
  C  C91  1  0.97491200  0.50000000  0.66666667  1
  C  C92  1  0.97491200  -0.00000000  0.16666667  1
  C  C93  1  0.97491200  0.16666667  0.50000000  1
  C  C94  1  0.97491200  0.33333333  0.83333333  1
  C  C95  1  0.97491200  -0.00000000  0.66666667  1
  C  C96  1  0.37517600  0.83333333  -0.00000000  1
  C  C97  1  0.37517600  0.66666667  0.16666667  1
  C  C98  1  0.37517600  0.83333333  0.50000000  1
  C  C99  1  0.37517600  0.33333333  -0.00000000  1
  C  C100  1  0.37517600  0.50000000  0.33333333  1
  C  C101  1  0.37517600  0.66666667  0.66666667  1
  C  C102  1  0.37517600  0.16666667  0.16666667  1
  C  C103  1  0.37517600  0.33333333  0.50000000  1
  C  C104  1  0.37517600  0.50000000  0.83333333  1
  C  C105  1  0.37517600  -0.00000000  0.33333333  1
  C  C106  1  0.37517600  0.16666667  0.66666667  1
  C  C107  1  0.37517600  -0.00000000  0.83333333  1
  C  C108  1  0.87500400  0.83333333  0.16666667  1
  C  C109  1  0.87500400  0.50000000  -0.00000000  1
  C  C110  1  0.87500400  0.66666667  0.33333333  1
  C  C111  1  0.87500400  0.83333333  0.66666667  1
  C  C112  1  0.87500400  0.33333333  0.16666667  1
  C  C113  1  0.87500400  0.50000000  0.50000000  1
  C  C114  1  0.87500400  0.66666667  0.83333333  1
  C  C115  1  0.87500400  -0.00000000  -0.00000000  1
  C  C116  1  0.87500400  0.16666667  0.33333333  1
  C  C117  1  0.87500400  0.33333333  0.66666667  1
  C  C118  1  0.87500400  -0.00000000  0.50000000  1
  C  C119  1  0.87500400  0.16666667  0.83333333  1
  Si  Si120  1  0.19991800  0.83333333  0.16666667  1
  Si  Si121  1  0.19991800  0.50000000  -0.00000000  1
  Si  Si122  1  0.19991800  0.66666667  0.33333333  1
  Si  Si123  1  0.19991800  0.83333333  0.66666667  1
  Si  Si124  1  0.19991800  0.33333333  0.16666667  1
  Si  Si125  1  0.19991800  0.50000000  0.50000000  1
  Si  Si126  1  0.19991800  0.66666667  0.83333333  1
  Si  Si127  1  0.19991800  -0.00000000  -0.00000000  1
  Si  Si128  1  0.19991800  0.16666667  0.33333333  1
  Si  Si129  1  0.19991800  0.33333333  0.66666667  1
  Si  Si130  1  0.19991800  -0.00000000  0.50000000  1
  Si  Si131  1  0.19991800  0.16666667  0.83333333  1
  Si  Si132  1  0.39995400  0.83333333  0.16666667  1
  Si  Si133  1  0.39995400  0.50000000  -0.00000000  1
  Si  Si134  1  0.39995400  0.66666667  0.33333333  1
  Si  Si135  1  0.39995400  0.83333333  0.66666667  1
  Si  Si136  1  0.39995400  0.33333333  0.16666667  1
  Si  Si137  1  0.39995400  0.50000000  0.50000000  1
  Si  Si138  1  0.39995400  0.66666667  0.83333333  1
  Si  Si139  1  0.39995400  -0.00000000  -0.00000000  1
  Si  Si140  1  0.39995400  0.16666667  0.33333333  1
  Si  Si141  1  0.39995400  0.33333333  0.66666667  1
  Si  Si142  1  0.39995400  -0.00000000  0.50000000  1
  Si  Si143  1  0.39995400  0.16666667  0.83333333  1
  Si  Si144  1  0.29998100  0.83333333  -0.00000000  1
  Si  Si145  1  0.29998100  0.66666667  0.16666667  1
  Si  Si146  1  0.29998100  0.83333333  0.50000000  1
  Si  Si147  1  0.29998100  0.33333333  -0.00000000  1
  Si  Si148  1  0.29998100  0.50000000  0.33333333  1
  Si  Si149  1  0.29998100  0.66666667  0.66666667  1
  Si  Si150  1  0.29998100  0.16666667  0.16666667  1
  Si  Si151  1  0.29998100  0.33333333  0.50000000  1
  Si  Si152  1  0.29998100  0.50000000  0.83333333  1
  Si  Si153  1  0.29998100  -0.00000000  0.33333333  1
  Si  Si154  1  0.29998100  0.16666667  0.66666667  1
  Si  Si155  1  0.29998100  -0.00000000  0.83333333  1
  Si  Si156  1  0.59995900  0.83333333  0.16666667  1
  Si  Si157  1  0.59995900  0.50000000  -0.00000000  1
  Si  Si158  1  0.59995900  0.66666667  0.33333333  1
  Si  Si159  1  0.59995900  0.83333333  0.66666667  1
  Si  Si160  1  0.59995900  0.33333333  0.16666667  1
  Si  Si161  1  0.59995900  0.50000000  0.50000000  1
  Si  Si162  1  0.59995900  0.66666667  0.83333333  1
  Si  Si163  1  0.59995900  -0.00000000  -0.00000000  1
  Si  Si164  1  0.59995900  0.16666667  0.33333333  1
  Si  Si165  1  0.59995900  0.33333333  0.66666667  1
  Si  Si166  1  0.59995900  -0.00000000  0.50000000  1
  Si  Si167  1  0.59995900  0.16666667  0.83333333  1
  Si  Si168  1  0.99996900  0.83333333  -0.00000000  1
  Si  Si169  1  0.99996900  0.66666667  0.16666667  1
  Si  Si170  1  0.99996900  0.83333333  0.50000000  1
  Si  Si171  1  0.99996900  0.33333333  -0.00000000  1
  Si  Si172  1  0.99996900  0.50000000  0.33333333  1
  Si  Si173  1  0.99996900  0.66666667  0.66666667  1
  Si  Si174  1  0.99996900  0.16666667  0.16666667  1
  Si  Si175  1  0.99996900  0.33333333  0.50000000  1
  Si  Si176  1  0.99996900  0.50000000  0.83333333  1
  Si  Si177  1  0.99996900  -0.00000000  0.33333333  1
  Si  Si178  1  0.99996900  0.16666667  0.66666667  1
  Si  Si179  1  0.99996900  -0.00000000  0.83333333  1
  Si  Si180  1  0.69998000  0.83333333  -0.00000000  1
  Si  Si181  1  0.69998000  0.66666667  0.16666667  1
  Si  Si182  1  0.69998000  0.83333333  0.50000000  1
  Si  Si183  1  0.69998000  0.33333333  -0.00000000  1
  Si  Si184  1  0.69998000  0.50000000  0.33333333  1
  Si  Si185  1  0.69998000  0.66666667  0.66666667  1
  Si  Si186  1  0.69998000  0.16666667  0.16666667  1
  Si  Si187  1  0.69998000  0.33333333  0.50000000  1
  Si  Si188  1  0.69998000  0.50000000  0.83333333  1
  Si  Si189  1  0.69998000  -0.00000000  0.33333333  1
  Si  Si190  1  0.69998000  0.16666667  0.66666667  1
  Si  Si191  1  0.69998000  -0.00000000  0.83333333  1
  Si  Si192  1  0.89990500  0.66666667  -0.00000000  1
  Si  Si193  1  0.89990500  0.83333333  0.33333333  1
  Si  Si194  1  0.89990500  0.50000000  0.16666667  1
  Si  Si195  1  0.89990500  0.66666667  0.50000000  1
  Si  Si196  1  0.89990500  0.83333333  0.83333333  1
  Si  Si197  1  0.89990500  0.16666667  -0.00000000  1
  Si  Si198  1  0.89990500  0.33333333  0.33333333  1
  Si  Si199  1  0.89990500  0.50000000  0.66666667  1
  Si  Si200  1  0.89990500  -0.00000000  0.16666667  1
  Si  Si201  1  0.89990500  0.16666667  0.50000000  1
  Si  Si202  1  0.89990500  0.33333333  0.83333333  1
  Si  Si203  1  0.89990500  -0.00000000  0.66666667  1
  Si  Si204  1  0.80002300  0.83333333  0.16666667  1
  Si  Si205  1  0.80002300  0.50000000  -0.00000000  1
  Si  Si206  1  0.80002300  0.66666667  0.33333333  1
  Si  Si207  1  0.80002300  0.83333333  0.66666667  1
  Si  Si208  1  0.80002300  0.33333333  0.16666667  1
  Si  Si209  1  0.80002300  0.50000000  0.50000000  1
  Si  Si210  1  0.80002300  0.66666667  0.83333333  1
  Si  Si211  1  0.80002300  -0.00000000  -0.00000000  1
  Si  Si212  1  0.80002300  0.16666667  0.33333333  1
  Si  Si213  1  0.80002300  0.33333333  0.66666667  1
  Si  Si214  1  0.80002300  -0.00000000  0.50000000  1
  Si  Si215  1  0.80002300  0.16666667  0.83333333  1
  Si  Si216  1  0.10001600  0.66666667  0.00000000  1
  Si  Si217  1  0.10001600  0.83333333  0.33333333  1
  Si  Si218  1  0.10001600  0.50000000  0.16666667  1
  Si  Si219  1  0.10001600  0.66666667  0.50000000  1
  Si  Si220  1  0.10001600  0.83333333  0.83333333  1
  Si  Si221  1  0.10001600  0.16666667  0.00000000  1
  Si  Si222  1  0.10001600  0.33333333  0.33333333  1
  Si  Si223  1  0.10001600  0.50000000  0.66666667  1
  Si  Si224  1  0.10001600  -0.00000000  0.16666667  1
  Si  Si225  1  0.10001600  0.16666667  0.50000000  1
  Si  Si226  1  0.10001600  0.33333333  0.83333333  1
  Si  Si227  1  0.10001600  -0.00000000  0.66666667  1
  Si  Si228  1  0.49997000  0.66666667  -0.00000000  1
  Si  Si229  1  0.49997000  0.83333333  0.33333333  1
  Si  Si230  1  0.49997000  0.50000000  0.16666667  1
  Si  Si231  1  0.49997000  0.66666667  0.50000000  1
  Si  Si232  1  0.49997000  0.83333333  0.83333333  1
  Si  Si233  1  0.49997000  0.16666667  -0.00000000  1
  Si  Si234  1  0.49997000  0.33333333  0.33333333  1
  Si  Si235  1  0.49997000  0.50000000  0.66666667  1
  Si  Si236  1  0.49997000  -0.00000000  0.16666667  1
  Si  Si237  1  0.49997000  0.16666667  0.50000000  1
  Si  Si238  1  0.49997000  0.33333333  0.83333333  1
  Si  Si239  1  0.49997000  -0.00000000  0.66666667  1
