# generated using pymatgen
data_Si
_symmetry_space_group_name_H-M   'P 1'
_cell_length_a   3.86697465
_cell_length_b   23.52188853
_cell_length_c   117.60944263
_cell_angle_alpha   120.00000000
_cell_angle_beta   104.27631868
_cell_angle_gamma   109.19583368
_symmetry_Int_Tables_number   1
_chemical_formula_structural   Si
_chemical_formula_sum   Si370
_cell_volume   7564.33417700
_cell_formula_units_Z   370
loop_
 _symmetry_equiv_pos_site_id
 _symmetry_equiv_pos_as_xyz
  1  'x, y, z'
loop_
 _atom_site_type_symbol
 _atom_site_label
 _atom_site_symmetry_multiplicity
 _atom_site_fract_x
 _atom_site_fract_y
 _atom_site_fract_z
 _atom_site_occupancy
  Si  Si0  1  0.25000000  0.04729730  0.04594595  1
  Si  Si1  1  0.25000000  0.04729730  0.24594595  1
  Si  Si2  1  0.25000000  0.04729730  0.44594595  1
  Si  Si3  1  0.25000000  0.04729730  0.64594595  1
  Si  Si4  1  0.25000000  0.04729730  0.84594595  1
  Si  Si5  1  0.25000000  0.15540541  0.00810811  1
  Si  Si6  1  0.25000000  0.15540541  0.20810811  1
  Si  Si7  1  0.25000000  0.15540541  0.40810811  1
  Si  Si8  1  0.25000000  0.15540541  0.60810811  1
  Si  Si9  1  0.25000000  0.15540541  0.80810811  1
  Si  Si10  1  0.25000000  0.02027027  0.10540541  1
  Si  Si11  1  0.25000000  0.02027027  0.30540541  1
  Si  Si12  1  0.25000000  0.02027027  0.50540541  1
  Si  Si13  1  0.25000000  0.02027027  0.70540541  1
  Si  Si14  1  0.25000000  0.02027027  0.90540541  1
  Si  Si15  1  0.25000000  0.12837838  0.06756757  1
  Si  Si16  1  0.25000000  0.12837838  0.26756757  1
  Si  Si17  1  0.25000000  0.12837838  0.46756757  1
  Si  Si18  1  0.25000000  0.12837838  0.66756757  1
  Si  Si19  1  0.25000000  0.12837838  0.86756757  1
  Si  Si20  1  0.25000000  0.23648649  0.02972973  1
  Si  Si21  1  0.25000000  0.23648649  0.22972973  1
  Si  Si22  1  0.25000000  0.23648649  0.42972973  1
  Si  Si23  1  0.25000000  0.23648649  0.62972973  1
  Si  Si24  1  0.25000000  0.23648649  0.82972973  1
  Si  Si25  1  0.25000000  0.10135135  0.12702703  1
  Si  Si26  1  0.25000000  0.10135135  0.32702703  1
  Si  Si27  1  0.25000000  0.10135135  0.52702703  1
  Si  Si28  1  0.25000000  0.10135135  0.72702703  1
  Si  Si29  1  0.25000000  0.10135135  0.92702703  1
  Si  Si30  1  0.25000000  0.20945946  0.08918919  1
  Si  Si31  1  0.25000000  0.20945946  0.28918919  1
  Si  Si32  1  0.25000000  0.20945946  0.48918919  1
  Si  Si33  1  0.25000000  0.20945946  0.68918919  1
  Si  Si34  1  0.25000000  0.20945946  0.88918919  1
  Si  Si35  1  0.25000000  0.31756757  0.05135135  1
  Si  Si36  1  0.25000000  0.31756757  0.25135135  1
  Si  Si37  1  0.25000000  0.31756757  0.45135135  1
  Si  Si38  1  0.25000000  0.31756757  0.65135135  1
  Si  Si39  1  0.25000000  0.31756757  0.85135135  1
  Si  Si40  1  0.25000000  0.42567568  0.01351351  1
  Si  Si41  1  0.25000000  0.42567568  0.21351351  1
  Si  Si42  1  0.25000000  0.42567568  0.41351351  1
  Si  Si43  1  0.25000000  0.42567568  0.61351351  1
  Si  Si44  1  0.25000000  0.42567568  0.81351351  1
  Si  Si45  1  0.25000000  0.07432432  0.18648649  1
  Si  Si46  1  0.25000000  0.07432432  0.38648649  1
  Si  Si47  1  0.25000000  0.07432432  0.58648649  1
  Si  Si48  1  0.25000000  0.07432432  0.78648649  1
  Si  Si49  1  0.25000000  0.07432432  0.98648649  1
  Si  Si50  1  0.25000000  0.18243243  0.14864865  1
  Si  Si51  1  0.25000000  0.18243243  0.34864865  1
  Si  Si52  1  0.25000000  0.18243243  0.54864865  1
  Si  Si53  1  0.25000000  0.18243243  0.74864865  1
  Si  Si54  1  0.25000000  0.18243243  0.94864865  1
  Si  Si55  1  0.25000000  0.29054054  0.11081081  1
  Si  Si56  1  0.25000000  0.29054054  0.31081081  1
  Si  Si57  1  0.25000000  0.29054054  0.51081081  1
  Si  Si58  1  0.25000000  0.29054054  0.71081081  1
  Si  Si59  1  0.25000000  0.29054054  0.91081081  1
  Si  Si60  1  0.25000000  0.39864865  0.07297297  1
  Si  Si61  1  0.25000000  0.39864865  0.27297297  1
  Si  Si62  1  0.25000000  0.39864865  0.47297297  1
  Si  Si63  1  0.25000000  0.39864865  0.67297297  1
  Si  Si64  1  0.25000000  0.39864865  0.87297297  1
  Si  Si65  1  0.25000000  0.50675676  0.03513514  1
  Si  Si66  1  0.25000000  0.50675676  0.23513514  1
  Si  Si67  1  0.25000000  0.50675676  0.43513514  1
  Si  Si68  1  0.25000000  0.50675676  0.63513514  1
  Si  Si69  1  0.25000000  0.50675676  0.83513514  1
  Si  Si70  1  0.25000000  0.26351351  0.17027027  1
  Si  Si71  1  0.25000000  0.26351351  0.37027027  1
  Si  Si72  1  0.25000000  0.26351351  0.57027027  1
  Si  Si73  1  0.25000000  0.26351351  0.77027027  1
  Si  Si74  1  0.25000000  0.26351351  0.97027027  1
  Si  Si75  1  0.25000000  0.37162162  0.13243243  1
  Si  Si76  1  0.25000000  0.37162162  0.33243243  1
  Si  Si77  1  0.25000000  0.37162162  0.53243243  1
  Si  Si78  1  0.25000000  0.37162162  0.73243243  1
  Si  Si79  1  0.25000000  0.37162162  0.93243243  1
  Si  Si80  1  0.25000000  0.47972973  0.09459459  1
  Si  Si81  1  0.25000000  0.47972973  0.29459459  1
  Si  Si82  1  0.25000000  0.47972973  0.49459459  1
  Si  Si83  1  0.25000000  0.47972973  0.69459459  1
  Si  Si84  1  0.25000000  0.47972973  0.89459459  1
  Si  Si85  1  0.25000000  0.58783784  0.05675676  1
  Si  Si86  1  0.25000000  0.58783784  0.25675676  1
  Si  Si87  1  0.25000000  0.58783784  0.45675676  1
  Si  Si88  1  0.25000000  0.58783784  0.65675676  1
  Si  Si89  1  0.25000000  0.58783784  0.85675676  1
  Si  Si90  1  0.25000000  0.69594595  0.01891892  1
  Si  Si91  1  0.25000000  0.69594595  0.21891892  1
  Si  Si92  1  0.25000000  0.69594595  0.41891892  1
  Si  Si93  1  0.25000000  0.69594595  0.61891892  1
  Si  Si94  1  0.25000000  0.69594595  0.81891892  1
  Si  Si95  1  0.25000000  0.34459459  0.19189189  1
  Si  Si96  1  0.25000000  0.34459459  0.39189189  1
  Si  Si97  1  0.25000000  0.34459459  0.59189189  1
  Si  Si98  1  0.25000000  0.34459459  0.79189189  1
  Si  Si99  1  0.25000000  0.34459459  0.99189189  1
  Si  Si100  1  0.25000000  0.45270270  0.15405405  1
  Si  Si101  1  0.25000000  0.45270270  0.35405405  1
  Si  Si102  1  0.25000000  0.45270270  0.55405405  1
  Si  Si103  1  0.25000000  0.45270270  0.75405405  1
  Si  Si104  1  0.25000000  0.45270270  0.95405405  1
  Si  Si105  1  0.25000000  0.56081081  0.11621622  1
  Si  Si106  1  0.25000000  0.56081081  0.31621622  1
  Si  Si107  1  0.25000000  0.56081081  0.51621622  1
  Si  Si108  1  0.25000000  0.56081081  0.71621622  1
  Si  Si109  1  0.25000000  0.56081081  0.91621622  1
  Si  Si110  1  0.25000000  0.66891892  0.07837838  1
  Si  Si111  1  0.25000000  0.66891892  0.27837838  1
  Si  Si112  1  0.25000000  0.66891892  0.47837838  1
  Si  Si113  1  0.25000000  0.66891892  0.67837838  1
  Si  Si114  1  0.25000000  0.66891892  0.87837838  1
  Si  Si115  1  0.25000000  0.77702703  0.04054054  1
  Si  Si116  1  0.25000000  0.77702703  0.24054054  1
  Si  Si117  1  0.25000000  0.77702703  0.44054054  1
  Si  Si118  1  0.25000000  0.77702703  0.64054054  1
  Si  Si119  1  0.25000000  0.77702703  0.84054054  1
  Si  Si120  1  0.25000000  0.88513514  0.00270270  1
  Si  Si121  1  0.25000000  0.88513514  0.20270270  1
  Si  Si122  1  0.25000000  0.88513514  0.40270270  1
  Si  Si123  1  0.25000000  0.88513514  0.60270270  1
  Si  Si124  1  0.25000000  0.88513514  0.80270270  1
  Si  Si125  1  0.25000000  0.53378378  0.17567568  1
  Si  Si126  1  0.25000000  0.53378378  0.37567568  1
  Si  Si127  1  0.25000000  0.53378378  0.57567568  1
  Si  Si128  1  0.25000000  0.53378378  0.77567568  1
  Si  Si129  1  0.25000000  0.53378378  0.97567568  1
  Si  Si130  1  0.25000000  0.64189189  0.13783784  1
  Si  Si131  1  0.25000000  0.64189189  0.33783784  1
  Si  Si132  1  0.25000000  0.64189189  0.53783784  1
  Si  Si133  1  0.25000000  0.64189189  0.73783784  1
  Si  Si134  1  0.25000000  0.64189189  0.93783784  1
  Si  Si135  1  0.25000000  0.75000000  0.10000000  1
  Si  Si136  1  0.25000000  0.75000000  0.30000000  1
  Si  Si137  1  0.25000000  0.75000000  0.50000000  1
  Si  Si138  1  0.25000000  0.75000000  0.70000000  1
  Si  Si139  1  0.25000000  0.75000000  0.90000000  1
  Si  Si140  1  0.25000000  0.85810811  0.06216216  1
  Si  Si141  1  0.25000000  0.85810811  0.26216216  1
  Si  Si142  1  0.25000000  0.85810811  0.46216216  1
  Si  Si143  1  0.25000000  0.85810811  0.66216216  1
  Si  Si144  1  0.25000000  0.85810811  0.86216216  1
  Si  Si145  1  0.25000000  0.96621622  0.02432432  1
  Si  Si146  1  0.25000000  0.96621622  0.22432432  1
  Si  Si147  1  0.25000000  0.96621622  0.42432432  1
  Si  Si148  1  0.25000000  0.96621622  0.62432432  1
  Si  Si149  1  0.25000000  0.96621622  0.82432432  1
  Si  Si150  1  0.25000000  0.61486486  0.19729730  1
  Si  Si151  1  0.25000000  0.61486486  0.39729730  1
  Si  Si152  1  0.25000000  0.61486486  0.59729730  1
  Si  Si153  1  0.25000000  0.61486486  0.79729730  1
  Si  Si154  1  0.25000000  0.61486486  0.99729730  1
  Si  Si155  1  0.25000000  0.72297297  0.15945946  1
  Si  Si156  1  0.25000000  0.72297297  0.35945946  1
  Si  Si157  1  0.25000000  0.72297297  0.55945946  1
  Si  Si158  1  0.25000000  0.72297297  0.75945946  1
  Si  Si159  1  0.25000000  0.72297297  0.95945946  1
  Si  Si160  1  0.25000000  0.83108108  0.12162162  1
  Si  Si161  1  0.25000000  0.83108108  0.32162162  1
  Si  Si162  1  0.25000000  0.83108108  0.52162162  1
  Si  Si163  1  0.25000000  0.83108108  0.72162162  1
  Si  Si164  1  0.25000000  0.83108108  0.92162162  1
  Si  Si165  1  0.25000000  0.93918919  0.08378378  1
  Si  Si166  1  0.25000000  0.93918919  0.28378378  1
  Si  Si167  1  0.25000000  0.93918919  0.48378378  1
  Si  Si168  1  0.25000000  0.93918919  0.68378378  1
  Si  Si169  1  0.25000000  0.93918919  0.88378378  1
  Si  Si170  1  0.25000000  0.80405405  0.18108108  1
  Si  Si171  1  0.25000000  0.80405405  0.38108108  1
  Si  Si172  1  0.25000000  0.80405405  0.58108108  1
  Si  Si173  1  0.25000000  0.80405405  0.78108108  1
  Si  Si174  1  0.25000000  0.80405405  0.98108108  1
  Si  Si175  1  0.25000000  0.91216216  0.14324324  1
  Si  Si176  1  0.25000000  0.91216216  0.34324324  1
  Si  Si177  1  0.25000000  0.91216216  0.54324324  1
  Si  Si178  1  0.25000000  0.91216216  0.74324324  1
  Si  Si179  1  0.25000000  0.91216216  0.94324324  1
  Si  Si180  1  0.25000000  0.99324324  0.16486486  1
  Si  Si181  1  0.25000000  0.99324324  0.36486486  1
  Si  Si182  1  0.25000000  0.99324324  0.56486486  1
  Si  Si183  1  0.25000000  0.99324324  0.76486486  1
  Si  Si184  1  0.25000000  0.99324324  0.96486486  1
  Si  Si185  1  0.50000000  0.04054054  0.01081081  1
  Si  Si186  1  0.50000000  0.04054054  0.21081081  1
  Si  Si187  1  0.50000000  0.04054054  0.41081081  1
  Si  Si188  1  0.50000000  0.04054054  0.61081081  1
  Si  Si189  1  0.50000000  0.04054054  0.81081081  1
  Si  Si190  1  0.50000000  0.01351351  0.07027027  1
  Si  Si191  1  0.50000000  0.01351351  0.27027027  1
  Si  Si192  1  0.50000000  0.01351351  0.47027027  1
  Si  Si193  1  0.50000000  0.01351351  0.67027027  1
  Si  Si194  1  0.50000000  0.01351351  0.87027027  1
  Si  Si195  1  0.50000000  0.12162162  0.03243243  1
  Si  Si196  1  0.50000000  0.12162162  0.23243243  1
  Si  Si197  1  0.50000000  0.12162162  0.43243243  1
  Si  Si198  1  0.50000000  0.12162162  0.63243243  1
  Si  Si199  1  0.50000000  0.12162162  0.83243243  1
  Si  Si200  1  0.50000000  0.09459459  0.09189189  1
  Si  Si201  1  0.50000000  0.09459459  0.29189189  1
  Si  Si202  1  0.50000000  0.09459459  0.49189189  1
  Si  Si203  1  0.50000000  0.09459459  0.69189189  1
  Si  Si204  1  0.50000000  0.09459459  0.89189189  1
  Si  Si205  1  0.50000000  0.20270270  0.05405405  1
  Si  Si206  1  0.50000000  0.20270270  0.25405405  1
  Si  Si207  1  0.50000000  0.20270270  0.45405405  1
  Si  Si208  1  0.50000000  0.20270270  0.65405405  1
  Si  Si209  1  0.50000000  0.20270270  0.85405405  1
  Si  Si210  1  0.50000000  0.31081081  0.01621622  1
  Si  Si211  1  0.50000000  0.31081081  0.21621622  1
  Si  Si212  1  0.50000000  0.31081081  0.41621622  1
  Si  Si213  1  0.50000000  0.31081081  0.61621622  1
  Si  Si214  1  0.50000000  0.31081081  0.81621622  1
  Si  Si215  1  0.50000000  0.06756757  0.15135135  1
  Si  Si216  1  0.50000000  0.06756757  0.35135135  1
  Si  Si217  1  0.50000000  0.06756757  0.55135135  1
  Si  Si218  1  0.50000000  0.06756757  0.75135135  1
  Si  Si219  1  0.50000000  0.06756757  0.95135135  1
  Si  Si220  1  0.50000000  0.17567568  0.11351351  1
  Si  Si221  1  0.50000000  0.17567568  0.31351351  1
  Si  Si222  1  0.50000000  0.17567568  0.51351351  1
  Si  Si223  1  0.50000000  0.17567568  0.71351351  1
  Si  Si224  1  0.50000000  0.17567568  0.91351351  1
  Si  Si225  1  0.50000000  0.28378378  0.07567568  1
  Si  Si226  1  0.50000000  0.28378378  0.27567568  1
  Si  Si227  1  0.50000000  0.28378378  0.47567568  1
  Si  Si228  1  0.50000000  0.28378378  0.67567568  1
  Si  Si229  1  0.50000000  0.28378378  0.87567568  1
  Si  Si230  1  0.50000000  0.39189189  0.03783784  1
  Si  Si231  1  0.50000000  0.39189189  0.23783784  1
  Si  Si232  1  0.50000000  0.39189189  0.43783784  1
  Si  Si233  1  0.50000000  0.39189189  0.63783784  1
  Si  Si234  1  0.50000000  0.39189189  0.83783784  1
  Si  Si235  1  0.50000000  0.50000000  0.00000000  1
  Si  Si236  1  0.50000000  0.50000000  0.20000000  1
  Si  Si237  1  0.50000000  0.50000000  0.40000000  1
  Si  Si238  1  0.50000000  0.50000000  0.60000000  1
  Si  Si239  1  0.50000000  0.50000000  0.80000000  1
  Si  Si240  1  0.50000000  0.14864865  0.17297297  1
  Si  Si241  1  0.50000000  0.14864865  0.37297297  1
  Si  Si242  1  0.50000000  0.14864865  0.57297297  1
  Si  Si243  1  0.50000000  0.14864865  0.77297297  1
  Si  Si244  1  0.50000000  0.14864865  0.97297297  1
  Si  Si245  1  0.50000000  0.25675676  0.13513514  1
  Si  Si246  1  0.50000000  0.25675676  0.33513514  1
  Si  Si247  1  0.50000000  0.25675676  0.53513514  1
  Si  Si248  1  0.50000000  0.25675676  0.73513514  1
  Si  Si249  1  0.50000000  0.25675676  0.93513514  1
  Si  Si250  1  0.50000000  0.36486486  0.09729730  1
  Si  Si251  1  0.50000000  0.36486486  0.29729730  1
  Si  Si252  1  0.50000000  0.36486486  0.49729730  1
  Si  Si253  1  0.50000000  0.36486486  0.69729730  1
  Si  Si254  1  0.50000000  0.36486486  0.89729730  1
  Si  Si255  1  0.50000000  0.47297297  0.05945946  1
  Si  Si256  1  0.50000000  0.47297297  0.25945946  1
  Si  Si257  1  0.50000000  0.47297297  0.45945946  1
  Si  Si258  1  0.50000000  0.47297297  0.65945946  1
  Si  Si259  1  0.50000000  0.47297297  0.85945946  1
  Si  Si260  1  0.50000000  0.58108108  0.02162162  1
  Si  Si261  1  0.50000000  0.58108108  0.22162162  1
  Si  Si262  1  0.50000000  0.58108108  0.42162162  1
  Si  Si263  1  0.50000000  0.58108108  0.62162162  1
  Si  Si264  1  0.50000000  0.58108108  0.82162162  1
  Si  Si265  1  0.50000000  0.22972973  0.19459459  1
  Si  Si266  1  0.50000000  0.22972973  0.39459459  1
  Si  Si267  1  0.50000000  0.22972973  0.59459459  1
  Si  Si268  1  0.50000000  0.22972973  0.79459459  1
  Si  Si269  1  0.50000000  0.22972973  0.99459459  1
  Si  Si270  1  0.50000000  0.33783784  0.15675676  1
  Si  Si271  1  0.50000000  0.33783784  0.35675676  1
  Si  Si272  1  0.50000000  0.33783784  0.55675676  1
  Si  Si273  1  0.50000000  0.33783784  0.75675676  1
  Si  Si274  1  0.50000000  0.33783784  0.95675676  1
  Si  Si275  1  0.50000000  0.44594595  0.11891892  1
  Si  Si276  1  0.50000000  0.44594595  0.31891892  1
  Si  Si277  1  0.50000000  0.44594595  0.51891892  1
  Si  Si278  1  0.50000000  0.44594595  0.71891892  1
  Si  Si279  1  0.50000000  0.44594595  0.91891892  1
  Si  Si280  1  0.50000000  0.55405405  0.08108108  1
  Si  Si281  1  0.50000000  0.55405405  0.28108108  1
  Si  Si282  1  0.50000000  0.55405405  0.48108108  1
  Si  Si283  1  0.50000000  0.55405405  0.68108108  1
  Si  Si284  1  0.50000000  0.55405405  0.88108108  1
  Si  Si285  1  0.50000000  0.66216216  0.04324324  1
  Si  Si286  1  0.50000000  0.66216216  0.24324324  1
  Si  Si287  1  0.50000000  0.66216216  0.44324324  1
  Si  Si288  1  0.50000000  0.66216216  0.64324324  1
  Si  Si289  1  0.50000000  0.66216216  0.84324324  1
  Si  Si290  1  0.50000000  0.77027027  0.00540541  1
  Si  Si291  1  0.50000000  0.77027027  0.20540541  1
  Si  Si292  1  0.50000000  0.77027027  0.40540541  1
  Si  Si293  1  0.50000000  0.77027027  0.60540541  1
  Si  Si294  1  0.50000000  0.77027027  0.80540541  1
  Si  Si295  1  0.50000000  0.41891892  0.17837838  1
  Si  Si296  1  0.50000000  0.41891892  0.37837838  1
  Si  Si297  1  0.50000000  0.41891892  0.57837838  1
  Si  Si298  1  0.50000000  0.41891892  0.77837838  1
  Si  Si299  1  0.50000000  0.41891892  0.97837838  1
  Si  Si300  1  0.50000000  0.52702703  0.14054054  1
  Si  Si301  1  0.50000000  0.52702703  0.34054054  1
  Si  Si302  1  0.50000000  0.52702703  0.54054054  1
  Si  Si303  1  0.50000000  0.52702703  0.74054054  1
  Si  Si304  1  0.50000000  0.52702703  0.94054054  1
  Si  Si305  1  0.50000000  0.63513514  0.10270270  1
  Si  Si306  1  0.50000000  0.63513514  0.30270270  1
  Si  Si307  1  0.50000000  0.63513514  0.50270270  1
  Si  Si308  1  0.50000000  0.63513514  0.70270270  1
  Si  Si309  1  0.50000000  0.63513514  0.90270270  1
  Si  Si310  1  0.50000000  0.74324324  0.06486486  1
  Si  Si311  1  0.50000000  0.74324324  0.26486486  1
  Si  Si312  1  0.50000000  0.74324324  0.46486486  1
  Si  Si313  1  0.50000000  0.74324324  0.66486486  1
  Si  Si314  1  0.50000000  0.74324324  0.86486486  1
  Si  Si315  1  0.50000000  0.85135135  0.02702703  1
  Si  Si316  1  0.50000000  0.85135135  0.22702703  1
  Si  Si317  1  0.50000000  0.85135135  0.42702703  1
  Si  Si318  1  0.50000000  0.85135135  0.62702703  1
  Si  Si319  1  0.50000000  0.85135135  0.82702703  1
  Si  Si320  1  0.50000000  0.60810811  0.16216216  1
  Si  Si321  1  0.50000000  0.60810811  0.36216216  1
  Si  Si322  1  0.50000000  0.60810811  0.56216216  1
  Si  Si323  1  0.50000000  0.60810811  0.76216216  1
  Si  Si324  1  0.50000000  0.60810811  0.96216216  1
  Si  Si325  1  0.50000000  0.71621622  0.12432432  1
  Si  Si326  1  0.50000000  0.71621622  0.32432432  1
  Si  Si327  1  0.50000000  0.71621622  0.52432432  1
  Si  Si328  1  0.50000000  0.71621622  0.72432432  1
  Si  Si329  1  0.50000000  0.71621622  0.92432432  1
  Si  Si330  1  0.50000000  0.82432432  0.08648649  1
  Si  Si331  1  0.50000000  0.82432432  0.28648649  1
  Si  Si332  1  0.50000000  0.82432432  0.48648649  1
  Si  Si333  1  0.50000000  0.82432432  0.68648649  1
  Si  Si334  1  0.50000000  0.82432432  0.88648649  1
  Si  Si335  1  0.50000000  0.93243243  0.04864865  1
  Si  Si336  1  0.50000000  0.93243243  0.24864865  1
  Si  Si337  1  0.50000000  0.93243243  0.44864865  1
  Si  Si338  1  0.50000000  0.93243243  0.64864865  1
  Si  Si339  1  0.50000000  0.93243243  0.84864865  1
  Si  Si340  1  0.50000000  0.68918919  0.18378378  1
  Si  Si341  1  0.50000000  0.68918919  0.38378378  1
  Si  Si342  1  0.50000000  0.68918919  0.58378378  1
  Si  Si343  1  0.50000000  0.68918919  0.78378378  1
  Si  Si344  1  0.50000000  0.68918919  0.98378378  1
  Si  Si345  1  0.50000000  0.79729730  0.14594595  1
  Si  Si346  1  0.50000000  0.79729730  0.34594595  1
  Si  Si347  1  0.50000000  0.79729730  0.54594595  1
  Si  Si348  1  0.50000000  0.79729730  0.74594595  1
  Si  Si349  1  0.50000000  0.79729730  0.94594595  1
  Si  Si350  1  0.50000000  0.90540541  0.10810811  1
  Si  Si351  1  0.50000000  0.90540541  0.30810811  1
  Si  Si352  1  0.50000000  0.90540541  0.50810811  1
  Si  Si353  1  0.50000000  0.90540541  0.70810811  1
  Si  Si354  1  0.50000000  0.90540541  0.90810811  1
  Si  Si355  1  0.50000000  0.87837838  0.16756757  1
  Si  Si356  1  0.50000000  0.87837838  0.36756757  1
  Si  Si357  1  0.50000000  0.87837838  0.56756757  1
  Si  Si358  1  0.50000000  0.87837838  0.76756757  1
  Si  Si359  1  0.50000000  0.87837838  0.96756757  1
  Si  Si360  1  0.50000000  0.98648649  0.12972973  1
  Si  Si361  1  0.50000000  0.98648649  0.32972973  1
  Si  Si362  1  0.50000000  0.98648649  0.52972973  1
  Si  Si363  1  0.50000000  0.98648649  0.72972973  1
  Si  Si364  1  0.50000000  0.98648649  0.92972973  1
  Si  Si365  1  0.50000000  0.95945946  0.18918919  1
  Si  Si366  1  0.50000000  0.95945946  0.38918919  1
  Si  Si367  1  0.50000000  0.95945946  0.58918919  1
  Si  Si368  1  0.50000000  0.95945946  0.78918919  1
  Si  Si369  1  0.50000000  0.95945946  0.98918919  1
